On Peak 2030 v11/NYISO_onpeak2030_v11_shunts_as_gensfromPowerWorld.raw
 0,    100.00, 33, 0, 1, 60.00       / September 22, 2022 19:57:09; Simulator Version 22; BuildDate 2022_8_22


    1,'MORTIMER    ', 115.0000,2,   1,  66,   1,1.01999998, 114.018977, 1.10000, 0.90000, 1.10000, 0.90000
    2,'UNKNOWN124~1',  69.0000,1,   1,  70,   1,1.01146126,  69.131609, 1.10000, 0.90000, 1.10000, 0.90000
    3,'UNKNOWN124~2', 115.0000,1,   1,  70,   1,1.01740205,  86.860124, 1.10000, 0.90000, 1.10000, 0.90000
    4,'UNKNOWN124~3', 115.0000,1,   1,  68,   1,0.99719614, 111.214843, 1.10000, 0.90000, 1.10000, 0.90000
    5,'UNKNOWN124~4', 115.0000,1,   1,  70,   1,1.00928223,  91.799027, 1.10000, 0.90000, 1.10000, 0.90000
    6,'UNKNOWN124~5', 115.0000,2,   1,  70,   1,1.01999998,  71.585089, 1.10000, 0.90000, 1.10000, 0.90000
    7,'UNKNOWN124~6', 115.0000,1,   1,  70,   1,1.01401436,  71.295434, 1.10000, 0.90000, 1.10000, 0.90000
    8,'UNKNOWN124~7', 115.0000,1,   1,  70,   1,1.01719415,  71.731753, 1.10000, 0.90000, 1.10000, 0.90000
    9,'UNKNOWN124~8', 115.0000,1,   1,  71,   1,1.01315260,  62.908761, 1.10000, 0.90000, 1.10000, 0.90000
   10,'UNKNOWN124~9', 115.0000,1,   1,  68,   1,1.01922774, 105.414483, 1.10000, 0.90000, 1.10000, 0.90000
   11,'UNKNOWN12~10', 115.0000,1,   1,  70,   1,1.01831543,  86.640123, 1.10000, 0.90000, 1.10000, 0.90000
   12,'UNKNOWN12~11', 115.0000,1,   1,  70,   1,1.01319146,  70.141876, 1.10000, 0.90000, 1.10000, 0.90000
   13,'UNKNOWN12~12', 115.0000,1,   1,  70,   1,1.01085913,  69.101939, 1.10000, 0.90000, 1.10000, 0.90000
   14,'UNKNOWN12~13', 115.0000,1,   1,  69,   1,1.01301765,  77.322400, 1.10000, 0.90000, 1.10000, 0.90000
   15,'UNKNOWN12~14', 115.0000,2,   1,  69,   1,1.01999998, 109.046299, 1.10000, 0.90000, 1.10000, 0.90000
   16,'BOONVILLE   ', 115.0000,1,   1,  69,   1,1.00476873,  93.375892, 1.10000, 0.90000, 1.10000, 0.90000
   17,'UNKNOWN12~15', 138.0000,1,   1,  75,   1,1.01517642,  37.781728, 1.10000, 0.90000, 1.10000, 0.90000
   18,'GLENWOOD L~1',  69.0000,1,   1,  75,   1,1.02158117,  42.599685, 1.10000, 0.90000, 1.10000, 0.90000
   19,'NORTHPORT   ', 115.0000,2,   1,  75,   1,1.01999998,  39.392706, 1.10000, 0.90000, 1.10000, 0.90000
   20,'UNKNOWN12~16', 115.0000,1,   1,  69,   1,1.01503158, 112.784994, 1.10000, 0.90000, 1.10000, 0.90000
   21,'UNKNOWN12~17', 115.0000,2,   1,  69,   1,1.01535726, 112.787037, 1.10000, 0.90000, 1.10000, 0.90000
   22,'UNKNOWN12~18',  69.0000,1,   1,  70,   1,1.01954615,  70.463257, 1.10000, 0.90000, 1.10000, 0.90000
   23,'UNKNOWN12~19', 115.0000,1,   1,  69,   1,1.01473618,  77.554524, 1.10000, 0.90000, 1.10000, 0.90000
   24,'UNKNOWN12~20', 115.0000,2,   1,  67,   1,1.01999998, 105.790935, 1.10000, 0.90000, 1.10000, 0.90000
   25,'UNKNOWN12~21', 115.0000,1,   1,  69,   1,1.02059019, 105.066601, 1.10000, 0.90000, 1.10000, 0.90000
   26,'UNKNOWN12~22', 345.0000,2,   1,  74,   1,1.01999998,  52.234773, 1.10000, 0.90000, 1.10000, 0.90000
   27,'UNKNOWN12~23', 115.0000,2,   1,  67,   1,1.01999998, 100.552843, 1.10000, 0.90000, 1.10000, 0.90000
   28,'UNKNOWN12~24', 115.0000,1,   1,  69,   1,1.01994658, 105.459036, 1.10000, 0.90000, 1.10000, 0.90000
   29,'UNKNOWN12~25', 115.0000,1,   1,  67,   1,0.99682897, 108.854262, 1.10000, 0.90000, 1.10000, 0.90000
   30,'UNKNOWN12~26', 115.0000,2,   1,  67,   1,1.01999998, 118.973863, 1.10000, 0.90000, 1.10000, 0.90000
   31,'UNKNOWN12~27', 115.0000,2,   1,  70,   1,1.01999998,  72.760202, 1.10000, 0.90000, 1.10000, 0.90000
   32,'UNKNOWN12~28', 115.0000,2,   1,  70,   1,1.01999998,  72.779641, 1.10000, 0.90000, 1.10000, 0.90000
   33,'UNKNOWN12~29', 115.0000,2,   1,  65,   1,1.02499998, 129.671742, 1.10000, 0.90000, 1.10000, 0.90000
   34,'HAMMERHILL  ', 115.0000,2,   1,  67,   1,1.01999998, 109.861312, 1.10000, 0.90000, 1.10000, 0.90000
   35,'UNKNOWN12~30', 115.0000,2,   1,  68,   1,1.00156343, 106.695703, 1.10000, 0.90000, 1.10000, 0.90000
   36,'UNKNOWN12~31', 115.0000,1,   1,  68,   1,1.00140333, 106.759654, 1.10000, 0.90000, 1.10000, 0.90000
   37,'UNKNOWN12~32', 115.0000,1,   1,  65,   1,1.00978720, 124.247138, 1.10000, 0.90000, 1.10000, 0.90000
   38,'BLISS WIND~1', 115.0000,2,   1,  65,   1,1.01999998, 127.276696, 1.10000, 0.90000, 1.10000, 0.90000
   39,'UNKNOWN12~33', 230.0000,2,   1,  65,   1,1.02499998, 133.546058, 1.10000, 0.90000, 1.10000, 0.90000
   40,'UNKNOWN12~34', 115.0000,1,   1,  69,   1,1.02391636, 119.406692, 1.10000, 0.90000, 1.10000, 0.90000
   41,'UNKNOWN12~35', 115.0000,1,   1,  65,   1,1.00972962, 126.321480, 1.10000, 0.90000, 1.10000, 0.90000
   42,'UNKNOWN12~36', 115.0000,1,   1,  65,   1,1.01997745, 123.751403, 1.10000, 0.90000, 1.10000, 0.90000
   43,'DUGAN       ', 115.0000,1,   1,  65,   1,1.01858103, 123.360771, 1.10000, 0.90000, 1.10000, 0.90000
   44,'UNKNOWN12~37', 115.0000,1,   1,  65,   1,1.01860106, 123.370319, 1.10000, 0.90000, 1.10000, 0.90000
   45,'TAP124231   ', 115.0000,1,   1,  65,   1,1.01861048, 123.372560, 1.10000, 0.90000, 1.10000, 0.90000
   46,'W OLEAN     ', 115.0000,1,   1,  65,   1,1.01992023, 123.737387, 1.10000, 0.90000, 1.10000, 0.90000
   47,'VALLEY CAT  ', 115.0000,1,   1,  65,   1,1.02182829, 124.583675, 1.10000, 0.90000, 1.10000, 0.90000
   48,'MACHIAS #13 ', 115.0000,1,   1,  65,   1,1.01928651, 124.759156, 1.10000, 0.90000, 1.10000, 0.90000
   49,'VALLEY      ', 115.0000,1,   1,  69,   1,1.01350212,  82.198649, 1.10000, 0.90000, 1.10000, 0.90000
   50,'UNKNOWN12~38', 115.0000,1,   1,  69,   1,1.00629914, 110.273896, 1.10000, 0.90000, 1.10000, 0.90000
   51,'UNKNOWN12~39', 115.0000,1,   1,  67,   1,1.01720393, 120.688473, 1.10000, 0.90000, 1.10000, 0.90000
   52,'UNKNOWN12~40', 115.0000,2,   1,  67,   1,1.01999998, 121.098735, 1.10000, 0.90000, 1.10000, 0.90000
   53,'UNKNOWN12~41', 115.0000,2,   1,  67,   1,1.01999998, 120.764042, 1.10000, 0.90000, 1.10000, 0.90000
   54,'UNKNOWN12~42', 230.0000,1,   1,  67,   1,1.01581955, 121.689970, 1.10000, 0.90000, 1.10000, 0.90000
   55,'UNKNOWN12~43', 115.0000,1,   1,  67,   1,1.00255227, 111.537788, 1.10000, 0.90000, 1.10000, 0.90000
   56,'UNKNOWN12~44', 115.0000,1,   1,  67,   1,1.00119686, 110.214842, 1.10000, 0.90000, 1.10000, 0.90000
   57,'UNKNOWN12~45', 115.0000,1,   1,  67,   1,1.00081503, 108.706750, 1.10000, 0.90000, 1.10000, 0.90000
   58,'UNKNOWN12~46', 115.0000,1,   1,  67,   1,1.01917136, 109.622631, 1.10000, 0.90000, 1.10000, 0.90000
   59,'UNKNOWN12~47', 115.0000,1,   1,  69,   1,1.02139270, 105.050884, 1.10000, 0.90000, 1.10000, 0.90000
   60,'UNKNOWN12~48',  69.0000,2,   1,  69,   1,1.01999998,  70.354753, 1.10000, 0.90000, 1.10000, 0.90000
   61,'UNKNOWN12~49', 115.0000,1,   1,  67,   1,1.00376427, 100.186021, 1.10000, 0.90000, 1.10000, 0.90000
   62,'UNKNOWN12~50', 345.0000,1,   1,  70,   1,1.02000058,  81.298034, 1.10000, 0.90000, 1.10000, 0.90000
   63,'UNKNOWN12~51', 345.0000,2,   1,  70,   1,1.01999998,  81.320464, 1.10000, 0.90000, 1.10000, 0.90000
   64,'UNKNOWN12~52', 115.0000,1,   1,  69,   1,1.00222862, 106.505885, 1.10000, 0.90000, 1.10000, 0.90000
   65,'BERRY RD    ', 115.0000,1,   1,  65,   1,1.02075148, 122.261670, 1.10000, 0.90000, 1.10000, 0.90000
   66,'BAKER ST    ', 115.0000,1,   1,  65,   1,1.01735377, 119.790808, 1.10000, 0.90000, 1.10000, 0.90000
   67,'CUMMINS     ', 115.0000,1,   1,  65,   1,1.01738846, 119.841502, 1.10000, 0.90000, 1.10000, 0.90000
   68,'SILVER CREEK', 115.0000,1,   1,  65,   1,1.01616180, 122.216359, 1.10000, 0.90000, 1.10000, 0.90000
   69,'FALCONER    ', 115.0000,2,   1,  65,   1,1.01999998, 120.171127, 1.10000, 0.90000, 1.10000, 0.90000
   70,'UNKNOWN12~53', 115.0000,1,   1,  65,   1,1.01979589, 120.151524, 1.10000, 0.90000, 1.10000, 0.90000
   71,'WESTFIELD ~1', 115.0000,1,   1,  65,   1,1.02227616, 122.218818, 1.10000, 0.90000, 1.10000, 0.90000
   72,'UNKNOWN12~54', 115.0000,1,   1,  65,   1,1.01993752, 122.298417, 1.10000, 0.90000, 1.10000, 0.90000
   73,'LUDIUM      ', 115.0000,1,   1,  65,   1,1.01988697, 122.283978, 1.10000, 0.90000, 1.10000, 0.90000
   74,'BENNETT RD  ', 115.0000,1,   1,  65,   1,1.01973569, 122.238325, 1.10000, 0.90000, 1.10000, 0.90000
   75,'E DUNKIRK   ', 115.0000,1,   1,  65,   1,1.01954627, 122.185664, 1.10000, 0.90000, 1.10000, 0.90000
   76,'UNKNOWN12~55', 115.0000,1,   1,  65,   1,1.01953673, 122.183383, 1.10000, 0.90000, 1.10000, 0.90000
   77,'MOON SWITC~1', 115.0000,1,   1,  65,   1,1.02009428, 121.202526, 1.10000, 0.90000, 1.10000, 0.90000
   78,'HARTFIELD   ', 115.0000,1,   1,  65,   1,1.02120614, 121.714599, 1.10000, 0.90000, 1.10000, 0.90000
   79,'EAST 13TH ~1', 345.0000,2,   1,  74,   1,1.01999998,  52.901629, 1.10000, 0.90000, 1.10000, 0.90000
   80,'UNKNOWN12~56', 115.0000,1,   1,  69,   1,1.01868296, 104.869126, 1.10000, 0.90000, 1.10000, 0.90000
   81,'WESTOVER    ', 115.0000,2,   1,  67,   1,1.00711977,  96.052814, 1.10000, 0.90000, 1.10000, 0.90000
   82,'UNKNOWN12~57', 115.0000,2,   1,  69,   1,1.01999998,  89.680985, 1.10000, 0.90000, 1.10000, 0.90000
   83,'UNKNOWN12~58', 115.0000,2,   1,  69,   1,1.02064800, 105.119043, 1.10000, 0.90000, 1.10000, 0.90000
   84,'UNKNOWN12~59', 115.0000,2,   1,  70,   1,1.01999998,  72.616188, 1.10000, 0.90000, 1.10000, 0.90000
   85,'COLD SPRIN~1', 115.0000,1,   1,  65,   1,1.01707768, 120.405157, 1.10000, 0.90000, 1.10000, 0.90000
   86,'UNKNOWN12~60', 115.0000,1,   1,  65,   1,1.01687467, 125.090926, 1.10000, 0.90000, 1.10000, 0.90000
   87,'UNKNOWN12~61', 115.0000,1,   1,  65,   1,1.01632178, 125.221833, 1.10000, 0.90000, 1.10000, 0.90000
   88,'YORKSHIRE   ', 115.0000,1,   1,  65,   1,1.01634789, 125.413502, 1.10000, 0.90000, 1.10000, 0.90000
   89,'ARCADE      ', 115.0000,1,   1,  65,   1,1.01639593, 125.484386, 1.10000, 0.90000, 1.10000, 0.90000
   90,'BIXBY HILL  ', 115.0000,1,   1,  65,   1,1.01672411, 125.702474, 1.10000, 0.90000, 1.10000, 0.90000
   91,'UNKNOWN12~62', 115.0000,1,   1,  65,   1,1.01730072, 126.024490, 1.10000, 0.90000, 1.10000, 0.90000
   92,'UNKNOWN12~63', 115.0000,1,   1,  66,   1,1.01054049, 120.503060, 1.10000, 0.90000, 1.10000, 0.90000
   93,'UNKNOWN12~64', 115.0000,1,   1,  66,   1,1.01944792, 123.449317, 1.10000, 0.90000, 1.10000, 0.90000
   94,'UNKNOWN12~65', 115.0000,1,   1,  66,   1,1.01929379, 126.528244, 1.10000, 0.90000, 1.10000, 0.90000
   95,'UNKNOWN12~66', 115.0000,2,   1,  66,   1,1.01999998, 126.657826, 1.10000, 0.90000, 1.10000, 0.90000
   96,'UNKNOWN12~67', 115.0000,1,   1,  66,   1,1.01676464, 126.131942, 1.10000, 0.90000, 1.10000, 0.90000
   97,'UNKNOWN12~68', 115.0000,1,   1,  66,   1,1.01682675, 126.168907, 1.10000, 0.90000, 1.10000, 0.90000
   98,'UNKNOWN12~69', 115.0000,1,   1,  66,   1,1.01284719, 119.814304, 1.10000, 0.90000, 1.10000, 0.90000
   99,'UNKNOWN12~70', 115.0000,1,   1,  66,   1,1.01010883, 119.343185, 1.10000, 0.90000, 1.10000, 0.90000
  100,'UNKNOWN12~71', 115.0000,1,   1,  66,   1,1.00768197, 119.180312, 1.10000, 0.90000, 1.10000, 0.90000
  101,'UNKNOWN12~72', 115.0000,1,   1,  65,   1,1.00974536, 118.363381, 1.10000, 0.90000, 1.10000, 0.90000
  102,'N AKRON     ', 115.0000,1,   1,  65,   1,1.00967920, 118.373790, 1.10000, 0.90000, 1.10000, 0.90000
  103,'UNKNOWN12~73', 115.0000,1,   1,  65,   1,1.00862598, 118.631875, 1.10000, 0.90000, 1.10000, 0.90000
  104,'TONAWANDA   ', 115.0000,1,   1,  65,   1,1.00775564, 124.552871, 1.10000, 0.90000, 1.10000, 0.90000
  105,'GETZVILLE   ', 115.0000,1,   1,  65,   1,1.00770175, 124.844274, 1.10000, 0.90000, 1.10000, 0.90000
  106,'UNKNOWN12~74', 115.0000,1,   1,  65,   1,1.00797319, 125.084396, 1.10000, 0.90000, 1.10000, 0.90000
  107,'UNKNOWN12~75', 115.0000,1,   1,  65,   1,1.00890315, 125.539533, 1.10000, 0.90000, 1.10000, 0.90000
  108,'UNKNOWN12~76', 115.0000,1,   1,  67,   1,1.00688016, 107.271830, 1.10000, 0.90000, 1.10000, 0.90000
  109,'UNKNOWN12~77', 115.0000,1,   1,  67,   1,1.00518322, 107.039241, 1.10000, 0.90000, 1.10000, 0.90000
  110,'UNKNOWN12~78', 115.0000,1,   1,  67,   1,1.00396085, 102.174767, 1.10000, 0.90000, 1.10000, 0.90000
  111,'UNKNOWN12~79', 115.0000,1,   1,  67,   1,1.00133681, 106.789017, 1.10000, 0.90000, 1.10000, 0.90000
  112,'UNKNOWN12~80', 115.0000,1,   1,  67,   1,1.00217080,  97.387842, 1.10000, 0.90000, 1.10000, 0.90000
  113,'UNKNOWN12~81', 115.0000,1,   1,  67,   1,1.00122905,  97.912865, 1.10000, 0.90000, 1.10000, 0.90000
  114,'UNKNOWN12~82', 115.0000,1,   1,  67,   1,1.00110769,  98.746019, 1.10000, 0.90000, 1.10000, 0.90000
  115,'KATTELVILLE ', 115.0000,1,   1,  67,   1,1.00308812,  93.023591, 1.10000, 0.90000, 1.10000, 0.90000
  116,'UNKNOWN12~83', 115.0000,1,   1,  67,   1,1.00594568,  95.689816, 1.10000, 0.90000, 1.10000, 0.90000
  117,'NORTH ENDI~1', 115.0000,1,   1,  67,   1,1.00528729,  95.540918, 1.10000, 0.90000, 1.10000, 0.90000
  118,'UNKNOWN12~84', 115.0000,1,   1,  67,   1,1.00342917,  94.937348, 1.10000, 0.90000, 1.10000, 0.90000
  119,'UNKNOWN12~85', 115.0000,1,   1,  67,   1,1.00342822,  94.922691, 1.10000, 0.90000, 1.10000, 0.90000
  120,'UNKNOWN12~86', 115.0000,1,   1,  67,   1,1.00391209,  95.058181, 1.10000, 0.90000, 1.10000, 0.90000
  121,'UNKNOWN12~87', 115.0000,1,   1,  67,   1,1.00442898,  95.285872, 1.10000, 0.90000, 1.10000, 0.90000
  122,'ROBBLE AVE  ', 115.0000,1,   1,  67,   1,1.00553930,  95.613742, 1.10000, 0.90000, 1.10000, 0.90000
  123,'CASTLE GAR~1', 115.0000,1,   1,  67,   1,1.00411844,  95.185243, 1.10000, 0.90000, 1.10000, 0.90000
  124,'UNKNOWN12~88', 115.0000,1,   1,  67,   1,1.00069177, 106.768458, 1.10000, 0.90000, 1.10000, 0.90000
  125,'UNKNOWN12~89', 115.0000,2,   1,  69,   1,1.02714121, 118.539313, 1.10000, 0.90000, 1.10000, 0.90000
  126,'UNKNOWN12~90', 115.0000,1,   1,  69,   1,1.02666736, 118.395469, 1.10000, 0.90000, 1.10000, 0.90000
  127,'UNKNOWN12~91', 115.0000,1,   1,  70,   1,1.01278651,  71.630243, 1.10000, 0.90000, 1.10000, 0.90000
  128,'UNKNOWN12~92', 115.0000,2,   1,  66,   1,1.01999998, 118.675247, 1.10000, 0.90000, 1.10000, 0.90000
  129,'UNKNOWN12~93', 115.0000,1,   1,  66,   1,1.01944411, 111.823447, 1.10000, 0.90000, 1.10000, 0.90000
  130,'UNKNOWN12~94', 115.0000,1,   1,  66,   1,1.01873577, 112.682275, 1.10000, 0.90000, 1.10000, 0.90000
  131,'UNKNOWN12~95', 115.0000,1,   1,  67,   1,1.01731539, 120.717160, 1.10000, 0.90000, 1.10000, 0.90000
  132,'UNKNOWN12~96', 230.0000,1,   1,  67,   1,1.01845288, 126.780510, 1.10000, 0.90000, 1.10000, 0.90000
  133,'UNKNOWN12~97', 115.0000,1,   1,  67,   1,1.00174153, 107.373258, 1.10000, 0.90000, 1.10000, 0.90000
  134,'ANGOLA      ', 115.0000,1,   1,  65,   1,1.01214921, 122.386499, 1.10000, 0.90000, 1.10000, 0.90000
  135,'SPRINGVILLE ', 115.0000,1,   1,  65,   1,1.01444852, 124.996273, 1.10000, 0.90000, 1.10000, 0.90000
  136,'COBBLE HILL ', 115.0000,1,   1,  65,   1,1.01322043, 125.270410, 1.10000, 0.90000, 1.10000, 0.90000
  137,'BIG TREE    ', 115.0000,1,   1,  65,   1,1.01615584, 126.622500, 1.10000, 0.90000, 1.10000, 0.90000
  138,'UNKNOWN12~98', 230.0000,1,   1,  65,   1,1.02260780, 133.565155, 1.10000, 0.90000, 1.10000, 0.90000
  139,'PERRY #162  ', 115.0000,1,   1,  65,   1,1.02150083, 127.347661, 1.10000, 0.90000, 1.10000, 0.90000
  140,'SOUTH PERRY ', 115.0000,1,   1,  65,   1,1.02157497, 127.379148, 1.10000, 0.90000, 1.10000, 0.90000
  141,'UNKNOWN12~99', 115.0000,1,   1,  65,   1,1.01627767, 124.480375, 1.10000, 0.90000, 1.10000, 0.90000
  142,'UNKNOWN1~100', 115.0000,1,   1,  65,   1,1.01559293, 123.911707, 1.10000, 0.90000, 1.10000, 0.90000
  143,'UNKNOWN1~101', 115.0000,1,   1,  65,   1,1.02088416, 128.643075, 1.10000, 0.90000, 1.10000, 0.90000
  144,'UNKNOWN1~102', 115.0000,1,   1,  65,   1,1.01705360, 127.779521, 1.10000, 0.90000, 1.10000, 0.90000
  145,'ERIE ST     ', 115.0000,1,   1,  65,   1,1.01524162, 127.247490, 1.10000, 0.90000, 1.10000, 0.90000
  146,'DEPEW       ', 115.0000,1,   1,  65,   1,1.01478195, 127.119970, 1.10000, 0.90000, 1.10000, 0.90000
  147,'UNKNOWN1~103', 115.0000,1,   1,  67,   1,0.99927592, 106.911353, 1.10000, 0.90000, 1.10000, 0.90000
  148,'UNKNOWN1~104', 115.0000,1,   1,  67,   1,1.00320697,  99.582437, 1.10000, 0.90000, 1.10000, 0.90000
  149,'UNKNOWN1~105', 115.0000,1,   1,  67,   1,1.00272596, 100.593585, 1.10000, 0.90000, 1.10000, 0.90000
  150,'UNKNOWN1~106', 115.0000,1,   1,  67,   1,1.00478578,  99.997214, 1.10000, 0.90000, 1.10000, 0.90000
  151,'UNKNOWN1~107', 115.0000,1,   1,  67,   1,1.00481081, 100.003539, 1.10000, 0.90000, 1.10000, 0.90000
  152,'UNKNOWN1~108', 115.0000,1,   1,  67,   1,0.99770123, 111.045127, 1.10000, 0.90000, 1.10000, 0.90000
  153,'LABRADOR    ', 115.0000,1,   1,  67,   1,0.99738944,  95.459605, 1.10000, 0.90000, 1.10000, 0.90000
  154,'CORTLAND    ', 115.0000,1,   1,  67,   1,0.99771041,  97.243480, 1.10000, 0.90000, 1.10000, 0.90000
  155,'UNKNOWN1~109', 115.0000,1,   1,  67,   1,0.99744254,  97.170601, 1.10000, 0.90000, 1.10000, 0.90000
  156,'STARR RD    ', 115.0000,1,   1,  67,   1,0.99690968,  97.000701, 1.10000, 0.90000, 1.10000, 0.90000
  157,'SUNY        ', 115.0000,1,   1,  67,   1,0.99689400,  96.992081, 1.10000, 0.90000, 1.10000, 0.90000
  158,'UNKNOWN1~110', 115.0000,1,   1,  67,   1,0.99705273,  97.026321, 1.10000, 0.90000, 1.10000, 0.90000
  159,'DAVIS RD    ', 115.0000,1,   1,  65,   1,1.01903963, 127.794451, 1.10000, 0.90000, 1.10000, 0.90000
  160,'UNKNOWN1~111', 115.0000,1,   1,  65,   1,1.01543713, 126.323119, 1.10000, 0.90000, 1.10000, 0.90000
  161,'UNKNOWN1~112', 115.0000,2,   1,  65,   1,1.01450264, 124.808019, 1.10000, 0.90000, 1.10000, 0.90000
  162,'UNKNOWN1~113', 115.0000,1,   1,  65,   1,1.01424098, 124.795657, 1.10000, 0.90000, 1.10000, 0.90000
  163,'UNKNOWN1~114', 115.0000,1,   1,  65,   1,1.01365829, 124.778909, 1.10000, 0.90000, 1.10000, 0.90000
  164,'UNKNOWN1~115', 115.0000,1,   1,  65,   1,1.01365328, 124.777693, 1.10000, 0.90000, 1.10000, 0.90000
  165,'UNKNOWN1~116', 115.0000,1,   1,  65,   1,1.01132262, 125.661848, 1.10000, 0.90000, 1.10000, 0.90000
  166,'UNKNOWN1~117', 115.0000,1,   1,  65,   1,1.01159334, 125.728469, 1.10000, 0.90000, 1.10000, 0.90000
  167,'PINE GROVE  ', 115.0000,1,   1,  67,   1,1.00974417, 100.764893, 1.10000, 0.90000, 1.10000, 0.90000
  168,'BRIDGEPORT  ', 115.0000,1,   1,  69,   1,1.00573206,  96.916163, 1.10000, 0.90000, 1.10000, 0.90000
  169,'UNKNOWN1~118', 115.0000,1,   1,  67,   1,1.01037145, 100.218710, 1.10000, 0.90000, 1.10000, 0.90000
  170,'UNKNOWN1~119', 115.0000,1,   1,  67,   1,1.01124358, 100.087331, 1.10000, 0.90000, 1.10000, 0.90000
  171,'TEAL        ', 115.0000,1,   1,  67,   1,1.01078296, 100.072298, 1.10000, 0.90000, 1.10000, 0.90000
  172,'HOPKINS     ', 115.0000,1,   1,  67,   1,1.00984061, 100.752332, 1.10000, 0.90000, 1.10000, 0.90000
  173,'WOODARD     ', 115.0000,1,   1,  67,   1,1.00968742, 101.692071, 1.10000, 0.90000, 1.10000, 0.90000
  174,'BELMONT     ', 115.0000,1,   1,  67,   1,1.00962341, 101.571005, 1.10000, 0.90000, 1.10000, 0.90000
  175,'UNKNOWN1~120', 115.0000,1,   1,  67,   1,1.01119196, 101.852819, 1.10000, 0.90000, 1.10000, 0.90000
  176,'UNKNOWN1~121', 115.0000,1,   1,  67,   1,1.01398885, 101.951160, 1.10000, 0.90000, 1.10000, 0.90000
  177,'UNKNOWN1~122', 115.0000,1,   1,  67,   1,1.01351011, 101.970230, 1.10000, 0.90000, 1.10000, 0.90000
  178,'UNKNOWN1~123', 115.0000,2,   1,  67,   1,1.01536310, 102.044734, 1.10000, 0.90000, 1.10000, 0.90000
  179,'UNKNOWN1~124', 115.0000,1,   1,  67,   1,1.01497412, 102.060710, 1.10000, 0.90000, 1.10000, 0.90000
  180,'MILTON      ', 115.0000,1,   1,  67,   1,1.01230907, 102.323884, 1.10000, 0.90000, 1.10000, 0.90000
  181,'UNKNOWN1~125', 115.0000,1,   1,  67,   1,1.01492000, 102.010993, 1.10000, 0.90000, 1.10000, 0.90000
  182,'ANHEUSER B~1', 115.0000,1,   1,  67,   1,1.00614500, 103.009143, 1.10000, 0.90000, 1.10000, 0.90000
  183,'LYSANDER    ', 115.0000,1,   1,  67,   1,1.00618374, 103.018555, 1.10000, 0.90000, 1.10000, 0.90000
  184,'G E         ', 115.0000,1,   1,  67,   1,1.01124859, 102.056529, 1.10000, 0.90000, 1.10000, 0.90000
  185,'SORRELL HILL', 115.0000,1,   1,  67,   1,1.00747263, 102.967472, 1.10000, 0.90000, 1.10000, 0.90000
  186,'UNKNOWN125~1', 115.0000,1,   1,  69,   1,1.01059473,  79.363246, 1.10000, 0.90000, 1.10000, 0.90000
  187,'UNKNOWN125~2', 115.0000,1,   1,  69,   1,1.00661385,  81.923557, 1.10000, 0.90000, 1.10000, 0.90000
  188,'UNKNOWN125~3', 115.0000,1,   1,  69,   1,1.01290381,  73.658679, 1.10000, 0.90000, 1.10000, 0.90000
  189,'UNKNOWN125~4', 115.0000,1,   1,  69,   1,1.01371086,  76.786264, 1.10000, 0.90000, 1.10000, 0.90000
  190,'UNKNOWN125~5', 115.0000,2,   1,  68,   1,1.02000010, 111.559611, 1.10000, 0.90000, 1.10000, 0.90000
  191,'UNKNOWN125~6', 115.0000,1,   1,  68,   1,1.00673175, 105.338340, 1.10000, 0.90000, 1.10000, 0.90000
  192,'UNKNOWN125~7', 115.0000,1,   1,  68,   1,0.99874234, 110.249055, 1.10000, 0.90000, 1.10000, 0.90000
  193,'UNKNOWN125~8', 115.0000,1,   1,  68,   1,0.99686313, 111.135593, 1.10000, 0.90000, 1.10000, 0.90000
  194,'UNKNOWN125~9', 115.0000,2,   1,  70,   1,1.01188111,  69.172659, 1.10000, 0.90000, 1.10000, 0.90000
  195,'UNKNOWN12~10', 115.0000,1,   1,  70,   1,1.01182520,  69.158773, 1.10000, 0.90000, 1.10000, 0.90000
  196,'RISER125055 ', 115.0000,1,   1,  70,   1,1.01114488,  69.108093, 1.10000, 0.90000, 1.10000, 0.90000
  197,'UNKNOWN12~11', 115.0000,1,   1,  66,   1,1.02029955, 117.529647, 1.10000, 0.90000, 1.10000, 0.90000
  198,'HOGAN RD    ', 115.0000,1,   1,  66,   1,1.00217819, 110.486479, 1.10000, 0.90000, 1.10000, 0.90000
  199,'UNKNOWN12~12', 115.0000,1,   1,  66,   1,1.01949525, 113.899893, 1.10000, 0.90000, 1.10000, 0.90000
  200,'STATION #52 ', 115.0000,1,   1,  66,   1,1.00964737, 112.726945, 1.10000, 0.90000, 1.10000, 0.90000
...
0 / END OF BUS DATA, BEGIN LOAD DATA
    1,'1 ',1,   1,  66,   132.343,     0.000,     0.000,     0.000,     0.000,     0.000,   1,1, 0
    2,'1 ',1,   1,  70,     1.783,     0.000,     0.000,     0.000,     0.000,     0.000,   1,1, 0
    3,'1 ',1,   1,  70,     3.966,     0.000,     0.000,     0.000,     0.000,     0.000,   1,1, 0
    4,'1 ',1,   1,  68,    96.596,     0.000,     0.000,     0.000,     0.000,     0.000,   1,1, 0
    5,'1 ',1,   1,  70,     3.966,     0.000,     0.000,     0.000,     0.000,     0.000,   1,1, 0
    6,'1 ',1,   1,  70,     3.966,     0.000,     0.000,     0.000,     0.000,     0.000,   1,1, 0
    7,'1 ',1,   1,  70,     7.932,     0.000,     0.000,     0.000,     0.000,     0.000,   1,1, 0
    8,'1 ',1,   1,  70,     7.932,     0.000,     0.000,     0.000,     0.000,     0.000,   1,1, 0
    9,'1 ',1,   1,  71,    38.363,     0.000,     0.000,     0.000,     0.000,     0.000,   1,1, 0
   10,'1 ',1,   1,  68,    19.319,     0.000,     0.000,     0.000,     0.000,     0.000,   1,1, 0
   11,'1 ',1,   1,  70,     7.932,     0.000,     0.000,     0.000,     0.000,     0.000,   1,1, 0
   12,'1 ',1,   1,  70,     3.966,     0.000,     0.000,     0.000,     0.000,     0.000,   1,1, 0
   13,'1 ',1,   1,  70,    15.864,     0.000,     0.000,     0.000,     0.000,     0.000,   1,1, 0
   14,'1 ',1,   1,  69,     4.212,     0.000,     0.000,     0.000,     0.000,     0.000,   1,1, 0
   15,'1 ',1,   1,  69,     4.212,     0.000,     0.000,     0.000,     0.000,     0.000,   1,1, 0
   16,'1 ',1,   1,  69,    10.529,     0.000,     0.000,     0.000,     0.000,     0.000,   1,1, 0
   17,'1 ',1,   1,  75,    44.933,     0.000,     0.000,     0.000,     0.000,     0.000,   1,1, 0
   18,'1 ',1,   1,  75,    42.125,     0.000,     0.000,     0.000,     0.000,     0.000,   1,1, 0
   19,'1 ',1,   1,  75,    86.977,     0.000,     0.000,     0.000,     0.000,     0.000,   1,1, 0
   19,'EX',0, 101, 101,  -200.000,     0.000,     0.000,     0.000,     0.000,     0.000,   1,1, 0
   20,'1 ',1,   1,  69,     8.424,     0.000,     0.000,     0.000,     0.000,     0.000,   1,1, 0
   21,'1 ',1,   1,  69,     8.424,     0.000,     0.000,     0.000,     0.000,     0.000,   1,1, 0
   22,'1 ',1,   1,  70,     1.783,     0.000,     0.000,     0.000,     0.000,     0.000,   1,1, 0
   23,'1 ',1,   1,  69,    10.529,     0.000,     0.000,     0.000,     0.000,     0.000,   1,1, 0
   24,'1 ',1,   1,  67,    22.545,     0.000,     0.000,     0.000,     0.000,     0.000,   1,1, 0
   25,'1 ',1,   1,  69,     2.106,     0.000,     0.000,     0.000,     0.000,     0.000,   1,1, 0
   27,'1 ',1,   1,  67,     9.018,     0.000,     0.000,     0.000,     0.000,     0.000,   1,1, 0
   28,'1 ',1,   1,  69,     2.106,     0.000,     0.000,     0.000,     0.000,     0.000,   1,1, 0
   29,'1 ',1,   1,  67,    18.036,     0.000,     0.000,     0.000,     0.000,     0.000,   1,1, 0
   30,'1 ',1,   1,  67,     9.018,     0.000,     0.000,     0.000,     0.000,     0.000,   1,1, 0
   31,'1 ',1,   1,  70,     3.966,     0.000,     0.000,     0.000,     0.000,     0.000,   1,1, 0
   32,'1 ',1,   1,  70,     3.966,     0.000,     0.000,     0.000,     0.000,     0.000,   1,1, 0
   33,'1 ',1,   1,  65,     5.712,     0.000,     0.000,     0.000,     0.000,     0.000,   1,1, 0
   34,'1 ',1,   1,  67,     9.018,     0.000,     0.000,     0.000,     0.000,     0.000,   1,1, 0
   35,'1 ',1,   1,  68,    45.970,     0.000,     0.000,     0.000,     0.000,     0.000,   1,1, 0
   36,'1 ',1,   1,  68,    45.970,     0.000,     0.000,     0.000,     0.000,     0.000,   1,1, 0
   37,'1 ',1,   1,  65,     8.569,     0.000,     0.000,     0.000,     0.000,     0.000,   1,1, 0
   38,'1 ',1,   1,  65,     5.712,     0.000,     0.000,     0.000,     0.000,     0.000,   1,1, 0
   40,'1 ',1,   1,  69,     2.106,     0.000,     0.000,     0.000,     0.000,     0.000,   1,1, 0
   41,'1 ',1,   1,  65,     5.712,     0.000,     0.000,     0.000,     0.000,     0.000,   1,1, 0
   42,'1 ',1,   1,  65,    19.993,     0.000,     0.000,     0.000,     0.000,     0.000,   1,1, 0
   43,'1 ',1,   1,  65,     5.712,     0.000,     0.000,     0.000,     0.000,     0.000,   1,1, 0
   44,'1 ',1,   1,  65,     2.856,     0.000,     0.000,     0.000,     0.000,     0.000,   1,1, 0
   45,'1 ',1,   1,  65,     8.569,     0.000,     0.000,     0.000,     0.000,     0.000,   1,1, 0
   46,'1 ',1,   1,  65,     5.712,     0.000,     0.000,     0.000,     0.000,     0.000,   1,1, 0
   47,'1 ',1,   1,  65,     2.856,     0.000,     0.000,     0.000,     0.000,     0.000,   1,1, 0
   48,'1 ',1,   1,  65,    11.425,     0.000,     0.000,     0.000,     0.000,     0.000,   1,1, 0
   49,'1 ',1,   1,  69,     4.212,     0.000,     0.000,     0.000,     0.000,     0.000,   1,1, 0
   50,'1 ',1,   1,  69,     4.212,     0.000,     0.000,     0.000,     0.000,     0.000,   1,1, 0
   51,'1 ',1,   1,  67,     4.509,     0.000,     0.000,     0.000,     0.000,     0.000,   1,1, 0
   52,'1 ',1,   1,  67,     4.509,     0.000,     0.000,     0.000,     0.000,     0.000,   1,1, 0
   53,'1 ',1,   1,  67,     9.018,     0.000,     0.000,     0.000,     0.000,     0.000,   1,1, 0
   55,'1 ',1,   1,  67,    13.527,     0.000,     0.000,     0.000,     0.000,     0.000,   1,1, 0
   56,'1 ',1,   1,  67,     9.018,     0.000,     0.000,     0.000,     0.000,     0.000,   1,1, 0
   57,'1 ',1,   1,  67,     9.018,     0.000,     0.000,     0.000,     0.000,     0.000,   1,1, 0
   58,'1 ',1,   1,  67,     6.763,     0.000,     0.000,     0.000,     0.000,     0.000,   1,1, 0
   59,'1 ',1,   1,  69,    14.741,     0.000,     0.000,     0.000,     0.000,     0.000,   1,1, 0
   60,'1 ',1,   1,  69,     1.894,     0.000,     0.000,     0.000,     0.000,     0.000,   1,1, 0
   61,'1 ',1,   1,  67,    13.527,     0.000,     0.000,     0.000,     0.000,     0.000,   1,1, 0
   64,'1 ',1,   1,  69,     2.106,     0.000,     0.000,     0.000,     0.000,     0.000,   1,1, 0
   65,'1 ',1,   1,  65,     5.712,     0.000,     0.000,     0.000,     0.000,     0.000,   1,1, 0
   66,'1 ',1,   1,  65,     5.712,     0.000,     0.000,     0.000,     0.000,     0.000,   1,1, 0
   67,'1 ',1,   1,  65,     2.856,     0.000,     0.000,     0.000,     0.000,     0.000,   1,1, 0
   68,'1 ',1,   1,  65,     5.712,     0.000,     0.000,     0.000,     0.000,     0.000,   1,1, 0
   69,'1 ',1,   1,  65,    14.281,     0.000,     0.000,     0.000,     0.000,     0.000,   1,1, 0
   70,'1 ',1,   1,  65,     5.712,     0.000,     0.000,     0.000,     0.000,     0.000,   1,1, 0
   71,'1 ',1,   1,  65,     8.569,     0.000,     0.000,     0.000,     0.000,     0.000,   1,1, 0
   72,'1 ',1,   1,  65,     2.856,     0.000,     0.000,     0.000,     0.000,     0.000,   1,1, 0
   73,'1 ',1,   1,  65,     5.712,     0.000,     0.000,     0.000,     0.000,     0.000,   1,1, 0
   74,'1 ',1,   1,  65,    11.425,     0.000,     0.000,     0.000,     0.000,     0.000,   1,1, 0
   75,'1 ',1,   1,  65,     2.856,     0.000,     0.000,     0.000,     0.000,     0.000,   1,1, 0
   76,'1 ',1,   1,  65,     5.712,     0.000,     0.000,     0.000,     0.000,     0.000,   1,1, 0
   77,'1 ',1,   1,  65,    14.281,     0.000,     0.000,     0.000,     0.000,     0.000,   1,1, 0
   78,'1 ',1,   1,  65,     5.712,     0.000,     0.000,     0.000,     0.000,     0.000,   1,1, 0
   80,'1 ',1,   1,  69,     4.212,     0.000,     0.000,     0.000,     0.000,     0.000,   1,1, 0
   81,'1 ',1,   1,  67,    22.545,     0.000,     0.000,     0.000,     0.000,     0.000,   1,1, 0
   82,'1 ',1,   1,  69,     2.106,     0.000,     0.000,     0.000,     0.000,     0.000,   1,1, 0
   83,'1 ',1,   1,  69,     6.318,     0.000,     0.000,     0.000,     0.000,     0.000,   1,1, 0
   84,'1 ',1,   1,  70,     3.966,     0.000,     0.000,     0.000,     0.000,     0.000,   1,1, 0
   85,'1 ',1,   1,  65,     2.856,     0.000,     0.000,     0.000,     0.000,     0.000,   1,1, 0
   86,'1 ',1,   1,  65,     5.712,     0.000,     0.000,     0.000,     0.000,     0.000,   1,1, 0
   87,'1 ',1,   1,  65,     8.569,     0.000,     0.000,     0.000,     0.000,     0.000,   1,1, 0
   88,'1 ',1,   1,  65,     5.712,     0.000,     0.000,     0.000,     0.000,     0.000,   1,1, 0
   89,'1 ',1,   1,  65,     2.856,     0.000,     0.000,     0.000,     0.000,     0.000,   1,1, 0
   90,'1 ',1,   1,  65,     5.712,     0.000,     0.000,     0.000,     0.000,     0.000,   1,1, 0
   91,'1 ',1,   1,  65,     5.712,     0.000,     0.000,     0.000,     0.000,     0.000,   1,1, 0
   92,'1 ',1,   1,  66,    16.543,     0.000,     0.000,     0.000,     0.000,     0.000,   1,1, 0
   93,'1 ',1,   1,  66,    16.543,     0.000,     0.000,     0.000,     0.000,     0.000,   1,1, 0
   94,'1 ',1,   1,  66,    16.543,     0.000,     0.000,     0.000,     0.000,     0.000,   1,1, 0
   95,'1 ',1,   1,  66,     8.271,     0.000,     0.000,     0.000,     0.000,     0.000,   1,1, 0
   96,'1 ',1,   1,  66,     8.271,     0.000,     0.000,     0.000,     0.000,     0.000,   1,1, 0
   97,'1 ',1,   1,  66,    16.543,     0.000,     0.000,     0.000,     0.000,     0.000,   1,1, 0
   98,'1 ',1,   1,  66,    16.543,     0.000,     0.000,     0.000,     0.000,     0.000,   1,1, 0
   99,'1 ',1,   1,  66,    16.543,     0.000,     0.000,     0.000,     0.000,     0.000,   1,1, 0
  100,'1 ',1,   1,  66,     8.271,     0.000,     0.000,     0.000,     0.000,     0.000,   1,1, 0
  101,'1 ',1,   1,  65,     5.712,     0.000,     0.000,     0.000,     0.000,     0.000,   1,1, 0
  102,'1 ',1,   1,  65,     5.712,     0.000,     0.000,     0.000,     0.000,     0.000,   1,1, 0
  103,'1 ',1,   1,  65,     2.856,     0.000,     0.000,     0.000,     0.000,     0.000,   1,1, 0
  104,'1 ',1,   1,  65,     5.712,     0.000,     0.000,     0.000,     0.000,     0.000,   1,1, 0
  105,'1 ',1,   1,  65,    22.850,     0.000,     0.000,     0.000,     0.000,     0.000,   1,1, 0
  106,'1 ',1,   1,  65,     5.712,     0.000,     0.000,     0.000,     0.000,     0.000,   1,1, 0
  107,'1 ',1,   1,  65,    14.281,     0.000,     0.000,     0.000,     0.000,     0.000,   1,1, 0
  108,'1 ',1,   1,  67,     9.018,     0.000,     0.000,     0.000,     0.000,     0.000,   1,1, 0
  109,'1 ',1,   1,  67,     9.018,     0.000,     0.000,     0.000,     0.000,     0.000,   1,1, 0
  110,'1 ',1,   1,  67,    13.527,     0.000,     0.000,     0.000,     0.000,     0.000,   1,1, 0
  111,'1 ',1,   1,  67,     9.018,     0.000,     0.000,     0.000,     0.000,     0.000,   1,1, 0
  112,'1 ',1,   1,  67,     9.018,     0.000,     0.000,     0.000,     0.000,     0.000,   1,1, 0
  113,'1 ',1,   1,  67,     9.018,     0.000,     0.000,     0.000,     0.000,     0.000,   1,1, 0
  114,'1 ',1,   1,  67,     9.018,     0.000,     0.000,     0.000,     0.000,     0.000,   1,1, 0
  115,'1 ',1,   1,  67,     9.018,     0.000,     0.000,     0.000,     0.000,     0.000,   1,1, 0
  116,'1 ',1,   1,  67,     9.018,     0.000,     0.000,     0.000,     0.000,     0.000,   1,1, 0
  117,'1 ',1,   1,  67,    13.527,     0.000,     0.000,     0.000,     0.000,     0.000,   1,1, 0
  118,'1 ',1,   1,  67,     9.018,     0.000,     0.000,     0.000,     0.000,     0.000,   1,1, 0
  119,'1 ',1,   1,  67,     9.018,     0.000,     0.000,     0.000,     0.000,     0.000,   1,1, 0
  120,'1 ',1,   1,  67,     9.018,     0.000,     0.000,     0.000,     0.000,     0.000,   1,1, 0
  121,'1 ',1,   1,  67,     9.018,     0.000,     0.000,     0.000,     0.000,     0.000,   1,1, 0
  122,'1 ',1,   1,  67,     9.018,     0.000,     0.000,     0.000,     0.000,     0.000,   1,1, 0
  123,'1 ',1,   1,  67,     9.018,     0.000,     0.000,     0.000,     0.000,     0.000,   1,1, 0
  124,'1 ',1,   1,  67,    27.054,     0.000,     0.000,     0.000,     0.000,     0.000,   1,1, 0
  125,'1 ',1,   1,  69,     2.106,     0.000,     0.000,     0.000,     0.000,     0.000,   1,1, 0
  126,'1 ',1,   1,  69,     2.106,     0.000,     0.000,     0.000,     0.000,     0.000,   1,1, 0
  127,'1 ',1,   1,  70,    39.659,     0.000,     0.000,     0.000,     0.000,     0.000,   1,1, 0
  128,'1 ',1,   1,  66,    49.629,     0.000,     0.000,     0.000,     0.000,     0.000,   1,1, 0
  129,'1 ',1,   1,  66,    24.814,     0.000,     0.000,     0.000,     0.000,     0.000,   1,1, 0
  130,'1 ',1,   1,  66,     8.271,     0.000,     0.000,     0.000,     0.000,     0.000,   1,1, 0
  131,'1 ',1,   1,  67,    27.054,     0.000,     0.000,     0.000,     0.000,     0.000,   1,1, 0
  133,'1 ',1,   1,  67,    13.527,     0.000,     0.000,     0.000,     0.000,     0.000,   1,1, 0
  134,'1 ',1,   1,  65,    14.281,     0.000,     0.000,     0.000,     0.000,     0.000,   1,1, 0
  135,'1 ',1,   1,  65,     5.712,     0.000,     0.000,     0.000,     0.000,     0.000,   1,1, 0
  136,'1 ',1,   1,  65,     5.712,     0.000,     0.000,     0.000,     0.000,     0.000,   1,1, 0
  137,'1 ',1,   1,  65,     5.712,     0.000,     0.000,     0.000,     0.000,     0.000,   1,1, 0
  139,'1 ',1,   1,  65,     8.569,     0.000,     0.000,     0.000,     0.000,     0.000,   1,1, 0
  140,'1 ',1,   1,  65,    12.170,     0.000,     0.000,     0.000,     0.000,     0.000,   1,1, 0
  141,'1 ',1,   1,  65,     5.712,     0.000,     0.000,     0.000,     0.000,     0.000,   1,1, 0
  142,'1 ',1,   1,  65,     8.569,     0.000,     0.000,     0.000,     0.000,     0.000,   1,1, 0
  143,'1 ',1,   1,  65,     5.712,     0.000,     0.000,     0.000,     0.000,     0.000,   1,1, 0
  144,'1 ',1,   1,  65,     5.712,     0.000,     0.000,     0.000,     0.000,     0.000,   1,1, 0
  145,'1 ',1,   1,  65,     8.569,     0.000,     0.000,     0.000,     0.000,     0.000,   1,1, 0
  146,'1 ',1,   1,  65,     2.856,     0.000,     0.000,     0.000,     0.000,     0.000,   1,1, 0
  147,'1 ',1,   1,  67,     4.509,     0.000,     0.000,     0.000,     0.000,     0.000,   1,1, 0
  148,'1 ',1,   1,  67,     4.509,     0.000,     0.000,     0.000,     0.000,     0.000,   1,1, 0
  149,'1 ',1,   1,  67,    13.527,     0.000,     0.000,     0.000,     0.000,     0.000,   1,1, 0
  150,'1 ',1,   1,  67,     9.018,     0.000,     0.000,     0.000,     0.000,     0.000,   1,1, 0
  151,'1 ',1,   1,  67,     4.509,     0.000,     0.000,     0.000,     0.000,     0.000,   1,1, 0
  152,'1 ',1,   1,  67,     9.018,     0.000,     0.000,     0.000,     0.000,     0.000,   1,1, 0
  153,'1 ',1,   1,  67,     4.509,     0.000,     0.000,     0.000,     0.000,     0.000,   1,1, 0
  154,'1 ',1,   1,  67,    13.527,     0.000,     0.000,     0.000,     0.000,     0.000,   1,1, 0
  155,'1 ',1,   1,  67,     4.509,     0.000,     0.000,     0.000,     0.000,     0.000,   1,1, 0
  156,'1 ',1,   1,  67,     9.018,     0.000,     0.000,     0.000,     0.000,     0.000,   1,1, 0
  157,'1 ',1,   1,  67,     4.509,     0.000,     0.000,     0.000,     0.000,     0.000,   1,1, 0
  158,'1 ',1,   1,  67,     4.509,     0.000,     0.000,     0.000,     0.000,     0.000,   1,1, 0
  159,'1 ',1,   1,  65,     5.712,     0.000,     0.000,     0.000,     0.000,     0.000,   1,1, 0
  160,'1 ',1,   1,  65,     2.856,     0.000,     0.000,     0.000,     0.000,     0.000,   1,1, 0
  161,'1 ',1,   1,  65,     5.712,     0.000,     0.000,     0.000,     0.000,     0.000,   1,1, 0
  162,'1 ',1,   1,  65,    11.425,     0.000,     0.000,     0.000,     0.000,     0.000,   1,1, 0
  163,'1 ',1,   1,  65,    14.281,     0.000,     0.000,     0.000,     0.000,     0.000,   1,1, 0
  164,'1 ',1,   1,  65,     2.856,     0.000,     0.000,     0.000,     0.000,     0.000,   1,1, 0
  165,'1 ',1,   1,  65,     2.856,     0.000,     0.000,     0.000,     0.000,     0.000,   1,1, 0
  166,'1 ',1,   1,  65,     2.856,     0.000,     0.000,     0.000,     0.000,     0.000,   1,1, 0
  167,'1 ',1,   1,  67,     9.018,     0.000,     0.000,     0.000,     0.000,     0.000,   1,1, 0
  168,'1 ',1,   1,  69,     2.106,     0.000,     0.000,     0.000,     0.000,     0.000,   1,1, 0
  169,'1 ',1,   1,  67,     9.018,     0.000,     0.000,     0.000,     0.000,     0.000,   1,1, 0
  170,'1 ',1,   1,  67,     9.018,     0.000,     0.000,     0.000,     0.000,     0.000,   1,1, 0
  171,'1 ',1,   1,  67,    36.072,     0.000,     0.000,     0.000,     0.000,     0.000,   1,1, 0
  172,'1 ',1,   1,  67,     9.018,     0.000,     0.000,     0.000,     0.000,     0.000,   1,1, 0
  173,'1 ',1,   1,  67,    13.527,     0.000,     0.000,     0.000,     0.000,     0.000,   1,1, 0
  174,'1 ',1,   1,  67,     9.018,     0.000,     0.000,     0.000,     0.000,     0.000,   1,1, 0
  175,'1 ',1,   1,  67,     9.018,     0.000,     0.000,     0.000,     0.000,     0.000,   1,1, 0
  176,'1 ',1,   1,  67,     9.018,     0.000,     0.000,     0.000,     0.000,     0.000,   1,1, 0
  177,'1 ',1,   1,  67,     4.509,     0.000,     0.000,     0.000,     0.000,     0.000,   1,1, 0
  178,'1 ',1,   1,  67,    13.527,     0.000,     0.000,     0.000,     0.000,     0.000,   1,1, 0
  179,'1 ',1,   1,  67,     9.018,     0.000,     0.000,     0.000,     0.000,     0.000,   1,1, 0
  180,'1 ',1,   1,  67,     9.018,     0.000,     0.000,     0.000,     0.000,     0.000,   1,1, 0
  181,'1 ',1,   1,  67,     9.018,     0.000,     0.000,     0.000,     0.000,     0.000,   1,1, 0
  182,'1 ',1,   1,  67,     9.018,     0.000,     0.000,     0.000,     0.000,     0.000,   1,1, 0
  183,'1 ',1,   1,  67,     9.018,     0.000,     0.000,     0.000,     0.000,     0.000,   1,1, 0
  184,'1 ',1,   1,  67,     9.018,     0.000,     0.000,     0.000,     0.000,     0.000,   1,1, 0
  185,'1 ',1,   1,  67,     9.018,     0.000,     0.000,     0.000,     0.000,     0.000,   1,1, 0
  186,'1 ',1,   1,  69,     6.318,     0.000,     0.000,     0.000,     0.000,     0.000,   1,1, 0
  187,'1 ',1,   1,  69,     4.212,     0.000,     0.000,     0.000,     0.000,     0.000,   1,1, 0
  188,'1 ',1,   1,  69,     4.212,     0.000,     0.000,     0.000,     0.000,     0.000,   1,1, 0
  189,'1 ',1,   1,  69,     2.106,     0.000,     0.000,     0.000,     0.000,     0.000,   1,1, 0
  190,'1 ',1,   1,  68,    38.638,     0.000,     0.000,     0.000,     0.000,     0.000,   1,1, 0
  191,'1 ',1,   1,  68,    38.638,     0.000,     0.000,     0.000,     0.000,     0.000,   1,1, 0
  192,'1 ',1,   1,  68,    57.957,     0.000,     0.000,     0.000,     0.000,     0.000,   1,1, 0
  193,'1 ',1,   1,  68,    77.277,     0.000,     0.000,     0.000,     0.000,     0.000,   1,1, 0
  194,'1 ',1,   1,  70,    23.795,     0.000,     0.000,     0.000,     0.000,     0.000,   1,1, 0
  195,'1 ',1,   1,  70,     7.932,     0.000,     0.000,     0.000,     0.000,     0.000,   1,1, 0
  196,'1 ',1,   1,  70,     7.932,     0.000,     0.000,     0.000,     0.000,     0.000,   1,1, 0
  197,'1 ',1,   1,  66,    16.543,     0.000,     0.000,     0.000,     0.000,     0.000,   1,1, 0
  198,'1 ',1,   1,  66,    16.543,     0.000,     0.000,     0.000,     0.000,     0.000,   1,1, 0
  199,'1 ',1,   1,  66,    16.543,     0.000,     0.000,     0.000,     0.000,     0.000,   1,1, 0
  200,'1 ',1,   1,  66,    24.814,     0.000,     0.000,     0.000,     0.000,     0.000,   1,1, 0
  201,'1 ',1,   1,  66,    16.543,     0.000,     0.000,     0.000,     0.000,     0.000,   1,1, 0
  202,'1 ',1,   1,  67,     9.018,     0.000,     0.000,     0.000,     0.000,     0.000,   1,1, 0
  203,'1 ',1,   1,  69,     4.212,     0.000,     0.000,     0.000,     0.000,     0.000,   1,1, 0
  204,'1 ',1,   1,  69,     6.318,     0.000,     0.000,     0.000,     0.000,     0.000,   1,1, 0
  205,'1 ',1,   1,  69,     8.424,     0.000,     0.000,     0.000,     0.000,     0.000,   1,1, 0
  206,'1 ',1,   1,  69,     4.212,     0.000,     0.000,     0.000,     0.000,     0.000,   1,1, 0
  207,'1 ',1,   1,  67,     4.509,     0.000,     0.000,     0.000,     0.000,     0.000,   1,1, 0
...
0 / END OF LOAD DATA, BEGIN FIXED SHUNT DATA
0 / END OF FIXED SHUNT DATA, BEGIN GENERATOR DATA
    1,'QS',     0.000,   248.978,   250.000,  -250.000,1.02000,    0,   100.000,   0.00000,   1.00000,   0.00000,   0.00000,1.00000,1,  100.0,     0.000,     0.000,   1,1.0000,   0,1.0000,   0,1.0000,   0,1.0000,0, 1.0000
    6,'1 ',     2.800,    -0.132,     1.800,    -1.500,1.02000,    0,   100.000,   0.00000,   1.00000,   0.00000,   0.00000,1.00000,1,  100.0,     2.800,     1.000,   1,1.0000,   0,1.0000,   0,1.0000,   0,1.0000,0, 1.0000
    6,'2 ',     2.800,    -0.132,     1.800,    -1.500,1.02000,    0,   100.000,   0.00000,   1.00000,   0.00000,   0.00000,1.00000,1,  100.0,     2.800,     1.000,   1,1.0000,   0,1.0000,   0,1.0000,   0,1.0000,0, 1.0000
    6,'3 ',     3.000,    -0.132,     2.000,    -1.700,1.02000,    0,   100.000,   0.00000,   1.00000,   0.00000,   0.00000,1.00000,1,  100.0,     3.000,     1.000,   1,1.0000,   0,1.0000,   0,1.0000,   0,1.0000,0, 1.0000
    6,'4 ',     3.000,    -0.132,     2.000,    -1.700,1.02000,    0,   100.000,   0.00000,   1.00000,   0.00000,   0.00000,1.00000,1,  100.0,     3.000,     1.000,   1,1.0000,   0,1.0000,   0,1.0000,   0,1.0000,0, 1.0000
   15,'1 ',     8.000,     0.257,     5.200,    -4.400,1.02000,    0,   100.000,   0.00000,   1.00000,   0.00000,   0.00000,1.00000,1,  100.0,     8.000,     7.000,   1,1.0000,   0,1.0000,   0,1.0000,   0,1.0000,0, 1.0000
   15,'2 ',     8.000,     0.257,     5.200,    -4.400,1.02000,    0,   100.000,   0.00000,   1.00000,   0.00000,   0.00000,1.00000,1,  100.0,     8.000,     7.000,   1,1.0000,   0,1.0000,   0,1.0000,   0,1.0000,0, 1.0000
   17,'1 ',     0.020,     0.000,    11.700,    -9.900,1.02000,    0,   100.000,   0.00000,   1.00000,   0.00000,   0.00000,1.00000,0,  100.0,    18.000,    10.500,   1,1.0000,   0,1.0000,   0,1.0000,   0,1.0000,0, 1.0000
   17,'10',     0.040,     0.000,    27.200,   -23.000,1.02000,    0,   100.000,   0.00000,   1.00000,   0.00000,   0.00000,1.00000,0,  100.0,    41.800,    30.000,   1,1.0000,   0,1.0000,   0,1.0000,   0,1.0000,0, 1.0000
   17,'11',    13.350,     0.000,    27.200,   -23.000,1.02000,    0,   100.000,   0.00000,   1.00000,   0.00000,   0.00000,1.00000,0,  100.0,    41.800,    30.000,   1,1.0000,   0,1.0000,   0,1.0000,   0,1.0000,0, 1.0000
   17,'12',   139.620,     0.000,   122.200,  -103.400,1.02000,    0,   100.000,   0.00000,   1.00000,   0.00000,   0.00000,1.00000,0,  100.0,   188.000,    15.000,   1,1.0000,   0,1.0000,   0,1.0000,   0,1.0000,0, 1.0000
   17,'13',   186.810,     0.000,   122.200,  -103.400,1.02000,    0,   100.000,   0.00000,   1.00000,   0.00000,   0.00000,1.00000,0,  100.0,   188.000,    15.000,   1,1.0000,   0,1.0000,   0,1.0000,   0,1.0000,0, 1.0000
   17,'2 ',    17.890,     0.000,    11.700,    -9.900,1.02000,    0,   100.000,   0.00000,   1.00000,   0.00000,   0.00000,1.00000,0,  100.0,    18.000,    11.400,   1,1.0000,   0,1.0000,   0,1.0000,   0,1.0000,0, 1.0000
   17,'3 ',    17.890,     0.000,    11.700,    -9.900,1.02000,    0,   100.000,   0.00000,   1.00000,   0.00000,   0.00000,1.00000,0,  100.0,    18.000,    11.000,   1,1.0000,   0,1.0000,   0,1.0000,   0,1.0000,0, 1.0000
   17,'4 ',    17.890,     0.000,    11.700,    -9.900,1.02000,    0,   100.000,   0.00000,   1.00000,   0.00000,   0.00000,1.00000,0,  100.0,    18.000,    11.200,   1,1.0000,   0,1.0000,   0,1.0000,   0,1.0000,0, 1.0000
   17,'5 ',    17.890,     0.000,    11.700,    -9.900,1.02000,    0,   100.000,   0.00000,   1.00000,   0.00000,   0.00000,1.00000,0,  100.0,    18.000,    11.400,   1,1.0000,   0,1.0000,   0,1.0000,   0,1.0000,0, 1.0000
   17,'6 ',    17.890,     0.000,    11.700,    -9.900,1.02000,    0,   100.000,   0.00000,   1.00000,   0.00000,   0.00000,1.00000,0,  100.0,    18.000,    10.700,   1,1.0000,   0,1.0000,   0,1.0000,   0,1.0000,0, 1.0000
   17,'7 ',    17.890,     0.000,    11.700,    -9.900,1.02000,    0,   100.000,   0.00000,   1.00000,   0.00000,   0.00000,1.00000,0,  100.0,    18.000,     9.000,   1,1.0000,   0,1.0000,   0,1.0000,   0,1.0000,0, 1.0000
   17,'8 ',    41.540,     0.000,    27.200,   -23.000,1.02000,    0,   100.000,   0.00000,   1.00000,   0.00000,   0.00000,1.00000,0,  100.0,    41.800,    29.800,   1,1.0000,   0,1.0000,   0,1.0000,   0,1.0000,0, 1.0000
   17,'9 ',     0.000,     0.000,    27.200,   -23.000,1.02000,    0,   100.000,   0.00000,   1.00000,   0.00000,   0.00000,1.00000,0,  100.0,    41.800,    30.000,   1,1.0000,   0,1.0000,   0,1.0000,   0,1.0000,0, 1.0000
   18,'1 ',    15.900,     0.000,    10.400,    -8.800,1.02000,    0,   100.000,   0.00000,   1.00000,   0.00000,   0.00000,1.00000,0,  100.0,    16.000,    10.000,   1,1.0000,   0,1.0000,   0,1.0000,   0,1.0000,0, 1.0000
   18,'2 ',    52.660,     0.000,    34.500,   -29.200,1.02000,    0,   100.000,   0.00000,   1.00000,   0.00000,   0.00000,1.00000,0,  100.0,    53.000,    37.000,   1,1.0000,   0,1.0000,   0,1.0000,   0,1.0000,0, 1.0000
   18,'3 ',    52.660,     0.000,    34.500,   -29.200,1.02000,    0,   100.000,   0.00000,   1.00000,   0.00000,   0.00000,1.00000,0,  100.0,    53.000,    37.000,   1,1.0000,   0,1.0000,   0,1.0000,   0,1.0000,0, 1.0000
   18,'4 ',    54.650,     0.000,    35.800,   -30.300,1.02000,    0,   100.000,   0.00000,   1.00000,   0.00000,   0.00000,1.00000,0,  100.0,    55.000,    40.000,   1,1.0000,   0,1.0000,   0,1.0000,   0,1.0000,0, 1.0000
   18,'5 ',     0.000,     0.000,    35.800,   -30.300,1.02000,    0,   100.000,   0.00000,   1.00000,   0.00000,   0.00000,1.00000,0,  100.0,    55.000,    44.100,   1,1.0000,   0,1.0000,   0,1.0000,   0,1.0000,0, 1.0000
   19,'1 ',    15.900,     0.000,    10.400,    -8.800,1.02000,    0,   100.000,   0.00000,   1.00000,   0.00000,   0.00000,1.00000,0,  100.0,    16.000,    10.600,   1,1.0000,   0,1.0000,   0,1.0000,   0,1.0000,0, 1.0000
   19,'2 ',     0.000,     0.000,   251.600,  -212.900,1.02000,    0,   100.000,   0.00000,   1.00000,   0.00000,   0.00000,1.00000,0,  100.0,   387.000,    40.000,   1,1.0000,   0,1.0000,   0,1.0000,   0,1.0000,0, 1.0000
   19,'3 ',   384.550,     0.000,   251.600,  -212.900,1.02000,    0,   100.000,   0.00000,   1.00000,   0.00000,   0.00000,1.00000,0,  100.0,   387.000,    30.000,   1,1.0000,   0,1.0000,   0,1.0000,   0,1.0000,0, 1.0000
   19,'4 ',   387.000,     0.000,   251.600,  -212.900,1.02000,    0,   100.000,   0.00000,   1.00000,   0.00000,   0.00000,1.00000,0,  100.0,   387.000,    40.000,   1,1.0000,   0,1.0000,   0,1.0000,   0,1.0000,0, 1.0000
   19,'5 ',   387.000,     0.000,   251.600,  -212.900,1.02000,    0,   100.000,   0.00000,   1.00000,   0.00000,   0.00000,1.00000,0,  100.0,   387.000,    40.000,   1,1.0000,   0,1.0000,   0,1.0000,   0,1.0000,0, 1.0000
   19,'x ',   200.000,    -8.378,  9900.000, -9900.000,1.02000,    0,   100.000,   0.00000,   1.00000,   0.00000,   0.00000,1.00000,1,  100.0,   200.000,     0.000,   1,1.0000,   0,1.0000,   0,1.0000,   0,1.0000,0, 1.0000
   21,'1 ',    11.000,     0.000,     0.000,     0.000,1.02000,    0,   100.000,   0.00000,   1.00000,   0.00000,   0.00000,1.00000,1,  100.0,    11.000,     0.200,   1,1.0000,   0,1.0000,   0,1.0000,   0,1.0000,0, 1.0000
   21,'2 ',    12.000,     0.000,     0.000,     0.000,1.02000,    0,   100.000,   0.00000,   1.00000,   0.00000,   0.00000,1.00000,1,  100.0,    12.000,     0.200,   1,1.0000,   0,1.0000,   0,1.0000,   0,1.0000,0, 1.0000
   21,'3 ',    13.000,     0.000,     0.000,     0.000,1.02000,    0,   100.000,   0.00000,   1.00000,   0.00000,   0.00000,1.00000,1,  100.0,    13.000,     0.200,   1,1.0000,   0,1.0000,   0,1.0000,   0,1.0000,0, 1.0000
   24,'1 ',     9.000,     5.518,     5.900,    -5.000,1.02000,    0,   100.000,   0.00000,   1.00000,   0.00000,   0.00000,1.00000,1,  100.0,     9.000,     3.000,   1,1.0000,   0,1.0000,   0,1.0000,   0,1.0000,0, 1.0000
   24,'2 ',     9.000,     5.518,     5.900,    -5.000,1.02000,    0,   100.000,   0.00000,   1.00000,   0.00000,   0.00000,1.00000,1,  100.0,     9.000,     3.000,   1,1.0000,   0,1.0000,   0,1.0000,   0,1.0000,0, 1.0000
   24,'3 ',     9.000,     5.518,     5.900,    -5.000,1.02000,    0,   100.000,   0.00000,   1.00000,   0.00000,   0.00000,1.00000,1,  100.0,     9.000,     3.000,   1,1.0000,   0,1.0000,   0,1.0000,   0,1.0000,0, 1.0000
   24,'4 ',     9.000,     5.518,     5.900,    -5.000,1.02000,    0,   100.000,   0.00000,   1.00000,   0.00000,   0.00000,1.00000,1,  100.0,     9.000,     3.000,   1,1.0000,   0,1.0000,   0,1.0000,   0,1.0000,0, 1.0000
   26,'C1',   595.000,   144.157,   446.250,  -416.500,1.02000,    0,   100.000,   0.00000,   1.00000,   0.00000,   0.00000,1.00000,1,  100.0,   595.000,   320.000,   1,1.0000,   0,1.0000,   0,1.0000,   0,1.0000,0, 1.0000
   26,'C2',   650.000,   144.157,   487.500,  -455.000,1.02000,    0,   100.000,   0.00000,   1.00000,   0.00000,   0.00000,1.00000,1,  100.0,   650.000,   320.000,   1,1.0000,   0,1.0000,   0,1.0000,   0,1.0000,0, 1.0000
   27,'C1',   122.600,    76.762,    91.950,   -85.820,1.02000,    0,   100.000,   0.00000,   1.00000,   0.00000,   0.00000,1.00000,1,  100.0,   122.600,    42.000,   1,1.0000,   0,1.0000,   0,1.0000,   0,1.0000,0, 1.0000
   28,'C1',     0.000,     0.000,    47.170,   -44.030,1.02000,    0,   100.000,   0.00000,   1.00000,   0.00000,   0.00000,1.00000,0,  100.0,    62.900,    35.000,   1,1.0000,   0,1.0000,   0,1.0000,   0,1.0000,0, 1.0000
   29,'1 ',   112.000,     0.000,    72.800,   -61.600,1.02000,    0,   100.000,   0.00000,   1.00000,   0.00000,   0.00000,1.00000,0,  100.0,   112.000,    32.000,   1,1.0000,   0,1.0000,   0,1.0000,   0,1.0000,0, 1.0000
   30,'1 ',     4.100,     2.700,     2.700,    -2.300,1.02000,    0,   100.000,   0.00000,   1.00000,   0.00000,   0.00000,1.00000,1,  100.0,     4.100,     0.000,   1,1.0000,   0,1.0000,   0,1.0000,   0,1.0000,1, 1.0000
   30,'2 ',    55.400,    20.171,    36.000,   -30.500,1.02000,    0,   100.000,   0.00000,   1.00000,   0.00000,   0.00000,1.00000,1,  100.0,    55.400,     0.000,   1,1.0000,   0,1.0000,   0,1.0000,   0,1.0000,1, 1.0000
   31,'1 ',     1.000,    -0.572,     0.700,    -0.600,1.02000,    0,   100.000,   0.00000,   1.00000,   0.00000,   0.00000,1.00000,1,  100.0,     1.000,     0.200,   1,1.0000,   0,1.0000,   0,1.0000,   0,1.0000,0, 1.0000
   31,'2 ',     1.000,    -0.572,     0.700,    -0.600,1.02000,    0,   100.000,   0.00000,   1.00000,   0.00000,   0.00000,1.00000,1,  100.0,     1.000,     0.200,   1,1.0000,   0,1.0000,   0,1.0000,   0,1.0000,0, 1.0000
   31,'3 ',     2.600,    -0.572,     1.700,    -1.400,1.02000,    0,   100.000,   0.00000,   1.00000,   0.00000,   0.00000,1.00000,1,  100.0,     2.600,     0.900,   1,1.0000,   0,1.0000,   0,1.0000,   0,1.0000,0, 1.0000
   31,'4 ',     2.600,    -0.572,     1.700,    -1.400,1.02000,    0,   100.000,   0.00000,   1.00000,   0.00000,   0.00000,1.00000,1,  100.0,     2.600,     0.900,   1,1.0000,   0,1.0000,   0,1.0000,   0,1.0000,0, 1.0000
   31,'5 ',     2.600,    -0.572,     1.700,    -1.400,1.02000,    0,   100.000,   0.00000,   1.00000,   0.00000,   0.00000,1.00000,1,  100.0,     2.600,     2.300,   1,1.0000,   0,1.0000,   0,1.0000,   0,1.0000,0, 1.0000
   31,'6 ',    24.600,    -0.572,    16.000,   -13.500,1.02000,    0,   100.000,   0.00000,   1.00000,   0.00000,   0.00000,1.00000,1,  100.0,    24.600,     6.000,   1,1.0000,   0,1.0000,   0,1.0000,   0,1.0000,0, 1.0000
   31,'7 ',    24.600,    -0.572,    16.000,   -13.500,1.02000,    0,   100.000,   0.00000,   1.00000,   0.00000,   0.00000,1.00000,1,  100.0,    24.600,     6.000,   1,1.0000,   0,1.0000,   0,1.0000,   0,1.0000,0, 1.0000
   32,'C1',   147.000,   -15.503,   110.250,  -102.900,1.02000,    0,   100.000,   0.00000,   1.00000,   0.00000,   0.00000,1.00000,1,  100.0,   147.000,   113.000,   1,1.0000,   0,1.0000,   0,1.0000,   0,1.0000,0, 1.0000
   33,'C1',    56.600,    -6.803,    42.450,   -39.620,1.02500,    0,   100.000,   0.00000,   1.00000,   0.00000,   0.00000,1.00000,1,  100.0,    56.600,    44.000,   1,1.0000,   0,1.0000,   0,1.0000,   0,1.0000,0, 1.0000
   34,'C1',    57.400,    14.394,    43.050,   -40.180,1.02000,    0,   100.000,   0.00000,   1.00000,   0.00000,   0.00000,1.00000,1,  100.0,    57.400,    44.500,   1,1.0000,   0,1.0000,   0,1.0000,   0,1.0000,0, 1.0000
   35,'1 ',     3.200,     0.000,     0.000,     0.000,1.02000,    0,   100.000,   0.00000,   1.00000,   0.00000,   0.00000,1.00000,1,  100.0,     3.200,     0.000,   1,1.0000,   0,1.0000,   0,1.0000,   0,1.0000,0, 1.0000
   35,'2 ',     3.200,     0.000,     0.000,     0.000,1.02000,    0,   100.000,   0.00000,   1.00000,   0.00000,   0.00000,1.00000,1,  100.0,     3.200,     0.000,   1,1.0000,   0,1.0000,   0,1.0000,   0,1.0000,0, 1.0000
   35,'3 ',     4.000,     0.000,     0.000,     0.000,1.02000,    0,   100.000,   0.00000,   1.00000,   0.00000,   0.00000,1.00000,1,  100.0,     4.000,     0.000,   1,1.0000,   0,1.0000,   0,1.0000,   0,1.0000,0, 1.0000
   35,'4 ',     4.000,     0.000,     0.000,     0.000,1.02000,    0,   100.000,   0.00000,   1.00000,   0.00000,   0.00000,1.00000,1,  100.0,     4.000,     0.000,   1,1.0000,   0,1.0000,   0,1.0000,   0,1.0000,0, 1.0000
   35,'5 ',     6.000,     0.000,     0.000,     0.000,1.02000,    0,   100.000,   0.00000,   1.00000,   0.00000,   0.00000,1.00000,1,  100.0,     6.000,     0.000,   1,1.0000,   0,1.0000,   0,1.0000,   0,1.0000,0, 1.0000
   35,'6 ',     7.000,     0.000,     0.000,     0.000,1.02000,    0,   100.000,   0.00000,   1.00000,   0.00000,   0.00000,1.00000,1,  100.0,     7.000,     0.000,   1,1.0000,   0,1.0000,   0,1.0000,   0,1.0000,0, 1.0000
   37,'C1',   221.300,     0.000,   165.970,  -154.910,1.02000,    0,   100.000,   0.00000,   1.00000,   0.00000,   0.00000,1.00000,0,  100.0,   221.300,   104.000,   1,1.0000,   0,1.0000,   0,1.0000,   0,1.0000,0, 1.0000
   38,'1 ',   100.500,    -9.666,    70.400,   -55.300,1.02000,    0,   100.000,   0.00000,   1.00000,   0.00000,   0.00000,1.00000,1,  100.0,   100.500,     0.000,   1,1.0000,   0,1.0000,   0,1.0000,   0,1.0000,1, 1.0000
   39,'1 ',   126.000,    11.344,    88.200,   -69.300,1.02500,    0,   100.000,   0.00000,   1.00000,   0.00000,   0.00000,1.00000,1,  100.0,   126.000,     0.000,   1,1.0000,   0,1.0000,   0,1.0000,   0,1.0000,1, 1.0000
   41,'C1',    65.280,     0.000,    49.270,   -45.990,1.02000,    0,   100.000,   0.00000,   1.00000,   0.00000,   0.00000,1.00000,0,  100.0,    65.700,    40.600,   1,1.0000,   0,1.0000,   0,1.0000,   0,1.0000,0, 1.0000
   52,'1 ',    16.200,     1.154,    11.300,    -8.900,1.02000,    0,   100.000,   0.00000,   1.00000,   0.00000,   0.00000,1.00000,1,  100.0,    16.200,     0.000,   1,1.0000,   0,1.0000,   0,1.0000,   0,1.0000,1, 1.0000
   53,'1 ',    37.500,    16.721,    26.300,   -20.600,1.02000,    0,   100.000,   0.00000,   1.00000,   0.00000,   0.00000,1.00000,1,  100.0,    37.500,     0.000,   1,1.0000,   0,1.0000,   0,1.0000,   0,1.0000,1, 1.0000
   60,'1 ',     0.800,     0.600,     0.600,    -0.400,1.02000,    0,   100.000,   0.00000,   1.00000,   0.00000,   0.00000,1.00000,1,  100.0,     0.800,     0.400,   1,1.0000,   0,1.0000,   0,1.0000,   0,1.0000,0, 1.0000
   60,'2 ',    10.000,     5.619,     7.000,    -5.500,1.02000,    0,   100.000,   0.00000,   1.00000,   0.00000,   0.00000,1.00000,1,  100.0,    10.000,     4.000,   1,1.0000,   0,1.0000,   0,1.0000,   0,1.0000,0, 1.0000
   63,'C1',    88.200,     0.000,    66.150,   -61.740,1.02000,    0,   100.000,   0.00000,   1.00000,   0.00000,   0.00000,1.00000,0,  100.0,    88.200,    60.000,   1,1.0000,   0,1.0000,   0,1.0000,   0,1.0000,0, 1.0000
   63,'C2',   653.700,   -51.739,   490.280,  -457.590,1.02000,    0,   100.000,   0.00000,   1.00000,   0.00000,   0.00000,1.00000,1,  100.0,   653.700,   315.000,   1,1.0000,   0,1.0000,   0,1.0000,   0,1.0000,0, 1.0000
   69,'1 ',     0.000,     0.000,    17.200,   -13.500,1.02000,    0,   100.000,   0.00000,   1.00000,   0.00000,   0.00000,1.00000,0,  100.0,    24.500,     5.000,   1,1.0000,   0,1.0000,   0,1.0000,   0,1.0000,0, 1.0000
   69,'2 ',    24.340,     0.000,    17.200,   -13.500,1.02000,    0,   100.000,   0.00000,   1.00000,   0.00000,   0.00000,1.00000,0,  100.0,    24.500,     5.000,   1,1.0000,   0,1.0000,   0,1.0000,   0,1.0000,0, 1.0000
   69,'3 ',    47.000,     0.000,    33.100,   -26.000,1.02000,    0,   100.000,   0.00000,   1.00000,   0.00000,   0.00000,1.00000,0,  100.0,    47.300,     9.000,   1,1.0000,   0,1.0000,   0,1.0000,   0,1.0000,0, 1.0000
   69,'X ',     0.000,    18.567,    20.000,   -20.000,1.02000,    0,   100.000,   0.00000,   1.00000,   0.00000,   0.00000,1.00000,1,  100.0,    10.000,   -10.000,   1,1.0000,   0,1.0000,   0,1.0000,   0,1.0000,0, 1.0000
   79,'1 ',     0.000,     0.000,     0.700,    -0.600,1.02000,    0,   100.000,   0.00000,   1.00000,   0.00000,   0.00000,1.00000,0,  100.0,     1.000,     0.300,   1,1.0000,   0,1.0000,   0,1.0000,   0,1.0000,0, 1.0000
   79,'10',     7.450,     0.000,     5.300,    -4.100,1.02000,    0,   100.000,   0.00000,   1.00000,   0.00000,   0.00000,1.00000,0,  100.0,     7.500,     4.000,   1,1.0000,   0,1.0000,   0,1.0000,   0,1.0000,0, 1.0000
   79,'11',    46.700,     0.000,    32.900,   -25.900,1.02000,    0,   100.000,   0.00000,   1.00000,   0.00000,   0.00000,1.00000,0,  100.0,    47.000,     1.000,   1,1.0000,   0,1.0000,   0,1.0000,   0,1.0000,0, 1.0000
   79,'12',     0.000,     0.000,   109.300,   -85.900,1.02000,    0,   100.000,   0.00000,   1.00000,   0.00000,   0.00000,1.00000,0,  100.0,   156.200,    45.000,   1,1.0000,   0,1.0000,   0,1.0000,   0,1.0000,0, 1.0000
   79,'13',   110.000,     6.873,   126.000,   -99.000,1.02000,    0,   100.000,   0.00000,   1.00000,   0.00000,   0.00000,1.00000,1,  100.0,   180.000,   110.000,   1,1.0000,   0,1.0000,   0,1.0000,   0,1.0000,0, 1.0000
   79,'14',   110.000,     6.873,   126.000,   -99.000,1.02000,    0,   100.000,   0.00000,   1.00000,   0.00000,   0.00000,1.00000,1,  100.0,   180.000,   110.000,   1,1.0000,   0,1.0000,   0,1.0000,   0,1.0000,0, 1.0000
   79,'15',     0.000,     0.000,   140.000,  -110.000,1.02000,    0,   100.000,   0.00000,   1.00000,   0.00000,   0.00000,1.00000,0,  100.0,   200.000,    65.000,   1,1.0000,   0,1.0000,   0,1.0000,   0,1.0000,0, 1.0000
   79,'2 ',     0.000,     0.000,     0.900,    -0.700,1.02000,    0,   100.000,   0.00000,   1.00000,   0.00000,   0.00000,1.00000,0,  100.0,     1.300,     0.400,   1,1.0000,   0,1.0000,   0,1.0000,   0,1.0000,0, 1.0000
...